data_LiLaTiNO
_audit_creation_method           'pos2cif.pl'
_cell_length_a               11.636
_cell_length_b               15.81
_cell_length_c               11.636
_cell_angle_alpha            90
_cell_angle_beta             90
_cell_angle_gamma            90
_symmetry_space_group_H-M        'P1'
_symmetry_Int_Tables_number      '1'
_symmetry_cell_setting           'triclinic'
loop_
_symmetry_equiv_pos_as_xyz
x,y,z

loop_
_atom_site_label
_atom_site_type_symbol
_atom_site_occupancy
_atom_site_fract_x
_atom_site_fract_y
_atom_site_fract_z
_atom_site_U_iso_or_equiv
Li1  Li  1.0000  0.34001  0.01722  0.94380  0.0000
Li2  Li  1.0000  0.00121  0.99582  0.21548  0.0000
Li3  Li  1.0000  0.33708  0.99666  0.22922  0.0000
Li4  Li  1.0000  0.82637  0.00070  0.00937  0.0000
Li5  Li  1.0000  0.00805  0.00194  0.54956  0.0000
Li6  Li  1.0000  0.66941  0.00108  0.79250  0.0000
Li7  Li  1.0000  0.33756  0.52090  0.94383  0.0000
Li8  Li  1.0000  0.00327  0.50014  0.21045  0.0000
Li9  Li  1.0000  0.33385  0.49905  0.22559  0.0000
Li10  Li  1.0000  0.82556  0.50185  0.00853  0.0000
Li11  Li  1.0000  0.00875  0.50020  0.54548  0.0000
Li12  Li  1.0000  0.66735  0.50270  0.78861  0.0000
La1  La  1.0000  0.99035  0.25968  0.00886  0.0000
La2  La  1.0000  0.34560  0.25610  0.01175  0.0000
La3  La  1.0000  0.67104  0.24931  0.01497  0.0000
La4  La  1.0000  0.99250  0.24939  0.34063  0.0000
La5  La  1.0000  0.34535  0.24919  0.33818  0.0000
La6  La  1.0000  0.67027  0.25049  0.34909  0.0000
La7  La  1.0000  0.00111  0.25451  0.67128  0.0000
La8  La  1.0000  0.33777  0.99981  0.66508  0.0000
La9  La  1.0000  0.33787  0.25509  0.67240  0.0000
La10  La  1.0000  0.67201  0.25260  0.67827  0.0000
La11  La  1.0000  0.99955  0.75004  0.01057  0.0000
La12  La  1.0000  0.33444  0.75107  0.01318  0.0000
La13  La  1.0000  0.67171  0.75044  0.01066  0.0000
La14  La  1.0000  0.99727  0.74968  0.34168  0.0000
La15  La  1.0000  0.33798  0.75008  0.33719  0.0000
La16  La  1.0000  0.66980  0.75047  0.35008  0.0000
La17  La  1.0000  0.00192  0.75296  0.67146  0.0000
La18  La  1.0000  0.33370  0.50134  0.66572  0.0000
La19  La  1.0000  0.33456  0.75250  0.67362  0.0000
La20  La  1.0000  0.67048  0.75277  0.67663  0.0000
Ti1  Ti  1.0000  0.16851  0.11687  0.18882  0.0000
Ti2  Ti  1.0000  0.16834  0.37368  0.16901  0.0000
Ti3  Ti  1.0000  0.50674  0.11801  0.17667  0.0000
Ti4  Ti  1.0000  0.50703  0.38283  0.17720  0.0000
Ti5  Ti  1.0000  0.83298  0.11902  0.18200  0.0000
Ti6  Ti  1.0000  0.83129  0.38168  0.18166  0.0000
Ti7  Ti  1.0000  0.17096  0.37754  0.49783  0.0000
Ti8  Ti  1.0000  0.50668  0.12092  0.50705  0.0000
Ti9  Ti  1.0000  0.50660  0.38312  0.50570  0.0000
Ti10  Ti  1.0000  0.83236  0.11946  0.51212  0.0000
Ti11  Ti  1.0000  0.83262  0.38360  0.51004  0.0000
Ti12  Ti  1.0000  0.16968  0.12890  0.83849  0.0000
Ti13  Ti  1.0000  0.16833  0.38474  0.84123  0.0000
Ti14  Ti  1.0000  0.50537  0.12477  0.84491  0.0000
Ti15  Ti  1.0000  0.50300  0.38213  0.84589  0.0000
Ti16  Ti  1.0000  0.84178  0.12270  0.84142  0.0000
Ti17  Ti  1.0000  0.83677  0.38248  0.83872  0.0000
Ti18  Ti  1.0000  0.17040  0.12505  0.50345  0.0000
Ti19  Ti  1.0000  0.16871  0.61862  0.17232  0.0000
Ti20  Ti  1.0000  0.16850  0.87580  0.17257  0.0000
Ti21  Ti  1.0000  0.50626  0.62064  0.17446  0.0000
Ti22  Ti  1.0000  0.50588  0.87978  0.17482  0.0000
Ti23  Ti  1.0000  0.83136  0.62196  0.18069  0.0000
Ti24  Ti  1.0000  0.83068  0.87836  0.17964  0.0000
Ti25  Ti  1.0000  0.16966  0.87983  0.50159  0.0000
Ti26  Ti  1.0000  0.50464  0.62154  0.50483  0.0000
Ti27  Ti  1.0000  0.50566  0.88130  0.50487  0.0000
Ti28  Ti  1.0000  0.83324  0.62002  0.51166  0.0000
Ti29  Ti  1.0000  0.83369  0.88318  0.51005  0.0000
Ti30  Ti  1.0000  0.16608  0.62543  0.84039  0.0000
Ti31  Ti  1.0000  0.16810  0.88644  0.84552  0.0000
Ti32  Ti  1.0000  0.50335  0.62601  0.84268  0.0000
Ti33  Ti  1.0000  0.50240  0.88021  0.84559  0.0000
Ti34  Ti  1.0000  0.83821  0.62325  0.83931  0.0000
Ti35  Ti  1.0000  0.83998  0.88082  0.83997  0.0000
Ti36  Ti  1.0000  0.16995  0.62264  0.50084  0.0000
N1  N  1.0000  0.16771  0.24202  0.14502  0.0000
N2  N  1.0000  0.16554  0.18392  0.05024  0.0000
O1  O  1.0000  0.99813  0.11985  0.19954  0.0000
O2  O  1.0000  0.16662  0.99556  0.18580  0.0000
O3  O  1.0000  0.99888  0.37656  0.18302  0.0000
O4  O  1.0000  0.16333  0.36601  0.00593  0.0000
O5  O  1.0000  0.33840  0.11754  0.19329  0.0000
O6  O  1.0000  0.50513  0.99849  0.17879  0.0000
O7  O  1.0000  0.51033  0.13863  0.01296  0.0000
O8  O  1.0000  0.33768  0.37918  0.17870  0.0000
O9  O  1.0000  0.48061  0.24968  0.17689  0.0000
O10  O  1.0000  0.51309  0.36324  0.01008  0.0000
O11  O  1.0000  0.83497  0.99849  0.17523  0.0000
O12  O  1.0000  0.83073  0.12615  0.01226  0.0000
O13  O  1.0000  0.66957  0.35077  0.17891  0.0000
O14  O  1.0000  0.85315  0.25026  0.17161  0.0000
O15  O  1.0000  0.82951  0.37722  0.00869  0.0000
O16  O  1.0000  0.00466  0.12716  0.51651  0.0000
O17  O  1.0000  0.17678  0.00219  0.50554  0.0000
O18  O  1.0000  0.16783  0.15639  0.34873  0.0000
O19  O  1.0000  0.00513  0.37478  0.51137  0.0000
O20  O  1.0000  0.16278  0.25088  0.54120  0.0000
O21  O  1.0000  0.16790  0.34201  0.33857  0.0000
O22  O  1.0000  0.33555  0.13828  0.50593  0.0000
O23  O  1.0000  0.48744  0.00092  0.51368  0.0000
O24  O  1.0000  0.51324  0.14050  0.34787  0.0000
O25  O  1.0000  0.33566  0.36266  0.50148  0.0000
O26  O  1.0000  0.50662  0.25056  0.52527  0.0000
O27  O  1.0000  0.50923  0.36003  0.34453  0.0000
O28  O  1.0000  0.66868  0.13578  0.52999  0.0000
O29  O  1.0000  0.84229  0.00116  0.52291  0.0000
O30  O  1.0000  0.82489  0.13599  0.34898  0.0000
O31  O  1.0000  0.66891  0.36589  0.52025  0.0000
O32  O  1.0000  0.84392  0.25128  0.50310  0.0000
O33  O  1.0000  0.82995  0.36617  0.34543  0.0000
O34  O  1.0000  0.00460  0.14183  0.85200  0.0000
O35  O  1.0000  0.19090  0.00374  0.86522  0.0000
O36  O  1.0000  0.18854  0.11517  0.68285  0.0000
O37  O  1.0000  0.00204  0.36262  0.83869  0.0000
O38  O  1.0000  0.17145  0.25105  0.81557  0.0000
O39  O  1.0000  0.18689  0.38586  0.67506  0.0000
O40  O  1.0000  0.33267  0.13571  0.87290  0.0000
O41  O  1.0000  0.48131  0.00124  0.84626  0.0000
O42  O  1.0000  0.47184  0.12473  0.68177  0.0000
O43  O  1.0000  0.33672  0.36147  0.85248  0.0000
O44  O  1.0000  0.51478  0.25063  0.83364  0.0000
O45  O  1.0000  0.47922  0.37796  0.67605  0.0000
O46  O  1.0000  0.66643  0.12150  0.82915  0.0000
O47  O  1.0000  0.83445  0.00157  0.84048  0.0000
O48  O  1.0000  0.84260  0.14823  0.68091  0.0000
O49  O  1.0000  0.66595  0.38151  0.82430  0.0000
O50  O  1.0000  0.81735  0.25168  0.86001  0.0000
O51  O  1.0000  0.83887  0.35565  0.67662  0.0000
O52  O  1.0000  0.66946  0.14896  0.18039  0.0000
O53  O  1.0000  0.00134  0.62866  0.18371  0.0000
O54  O  1.0000  0.16694  0.49896  0.18630  0.0000
O55  O  1.0000  0.16104  0.64045  0.00981  0.0000
O56  O  1.0000  0.00133  0.86947  0.18269  0.0000
O57  O  1.0000  0.18027  0.74900  0.17362  0.0000
O58  O  1.0000  0.16243  0.85584  0.00953  0.0000
O59  O  1.0000  0.33578  0.61930  0.17661  0.0000
O60  O  1.0000  0.50540  0.50111  0.18122  0.0000
O61  O  1.0000  0.51096  0.64038  0.01027  0.0000
O62  O  1.0000  0.33592  0.87799  0.17929  0.0000
O63  O  1.0000  0.47592  0.74956  0.17613  0.0000
O64  O  1.0000  0.50881  0.85859  0.01032  0.0000
O65  O  1.0000  0.83491  0.50182  0.17526  0.0000
O66  O  1.0000  0.83182  0.62594  0.00859  0.0000
O67  O  1.0000  0.66868  0.84947  0.17846  0.0000
O68  O  1.0000  0.85147  0.75010  0.16658  0.0000
O69  O  1.0000  0.83171  0.87574  0.00907  0.0000
O70  O  1.0000  0.00489  0.62564  0.51627  0.0000
O71  O  1.0000  0.17720  0.49972  0.50051  0.0000
O72  O  1.0000  0.16660  0.64737  0.34326  0.0000
O73  O  1.0000  0.00434  0.87706  0.51716  0.0000
O74  O  1.0000  0.16000  0.75164  0.53386  0.0000
O75  O  1.0000  0.16603  0.85349  0.34457  0.0000
O76  O  1.0000  0.33538  0.64027  0.50274  0.0000
O77  O  1.0000  0.48651  0.50164  0.51070  0.0000
O78  O  1.0000  0.50752  0.64272  0.34433  0.0000
O79  O  1.0000  0.33513  0.86364  0.50587  0.0000
O80  O  1.0000  0.50653  0.75136  0.52660  0.0000
O81  O  1.0000  0.50693  0.85903  0.34442  0.0000
O82  O  1.0000  0.66880  0.63774  0.51945  0.0000
O83  O  1.0000  0.84259  0.50142  0.52254  0.0000
O84  O  1.0000  0.83175  0.63742  0.34516  0.0000
O85  O  1.0000  0.66931  0.86483  0.51833  0.0000
O86  O  1.0000  0.84806  0.75130  0.50146  0.0000
O87  O  1.0000  0.83239  0.86475  0.34454  0.0000
O88  O  1.0000  0.00161  0.64047  0.83871  0.0000
O89  O  1.0000  0.19955  0.50208  0.84959  0.0000
O90  O  1.0000  0.19050  0.61737  0.67672  0.0000
O91  O  1.0000  0.00303  0.86038  0.84091  0.0000
O92  O  1.0000  0.17105  0.74872  0.82087  0.0000
O93  O  1.0000  0.18690  0.88613  0.68086  0.0000
O94  O  1.0000  0.33657  0.63786  0.86286  0.0000
O95  O  1.0000  0.48149  0.50192  0.84545  0.0000
O96  O  1.0000  0.47606  0.62385  0.67737  0.0000
O97  O  1.0000  0.33471  0.86255  0.85689  0.0000
O98  O  1.0000  0.51474  0.75107  0.82906  0.0000
O99  O  1.0000  0.47926  0.87808  0.67792  0.0000
O100  O  1.0000  0.66645  0.62308  0.82728  0.0000
O101  O  1.0000  0.83202  0.50199  0.83868  0.0000
O102  O  1.0000  0.83744  0.64907  0.67680  0.0000
O103  O  1.0000  0.66612  0.88031  0.83013  0.0000
O104  O  1.0000  0.82022  0.75126  0.85981  0.0000
O105  O  1.0000  0.83709  0.85495  0.67752  0.0000
O106  O  1.0000  0.66914  0.65043  0.17872  0.0000
